data_abc
_audit_creation_date              20XX-XX-XX
_audit_creation_method            'OpenMX Viewer'
_symmetry_space_group_name_H-M    'P1'
_symmetry_Int_Tables_number       1
_symmetry_cell_setting            triclinic
loop_
_symmetry_equiv_pos_as_xyz
  x,y,z
_cell_length_a                    8.7600
_cell_length_b                    8.7600
_cell_length_c                    12.7000
_cell_angle_alpha                 90.0000
_cell_angle_beta                  90.0000
_cell_angle_gamma                 120.0000
loop_
_atom_site_label
_atom_site_type_symbol
_atom_site_fract_x
_atom_site_fract_y
_atom_site_fract_z
_atom_site_Uiso_or_equiv
_atom_site_adp_type
_atom_site_occupancy
A1     Sm    0.00000   0.00000   0.34200   0.00000  Uiso   1.00
A2     Sm    0.00000   0.00000   0.65800   0.00000  Uiso   1.00
A3     Sm    0.66667   0.33333   0.67533   0.00000  Uiso   1.00
A4     Sm    0.66667   0.33333   0.99133   0.00000  Uiso   1.00
A5     Sm    0.33333   0.66667   0.00867   0.00000  Uiso   1.00
A6     Sm    0.33333   0.66667   0.32467   0.00000  Uiso   1.00
A7     Fe    0.50000   0.00000   0.50000   0.00000  Uiso   1.00
A8     Fe    1.00000   0.50000   0.50000   0.00000  Uiso   1.00
A9     Fe    0.50000   0.50000   0.50000   0.00000  Uiso   1.00
A10    Fe    0.16667   0.33333   0.83333   0.00000  Uiso   1.00
A11    Fe    0.66667   0.83333   0.83333   0.00000  Uiso   1.00
A12    Fe    0.16667   0.83333   0.83333   0.00000  Uiso   1.00
A13    Fe    0.83333   0.66667   0.16667   0.00000  Uiso   1.00
A14    Fe    0.33333   0.16667   0.16667   0.00000  Uiso   1.00
A15    Fe    0.83333   0.16667   0.16667   0.00000  Uiso   1.00
A16    Fe    0.29100   0.00000   0.00000   0.00000  Uiso   1.00
A17    Fe    0.70900   0.00000   0.00000   0.00000  Uiso   1.00
A18    Fe    0.00000   0.29100   0.00000   0.00000  Uiso   1.00
A19    Fe    1.00000   0.70900   0.00000   0.00000  Uiso   1.00
A20    Fe    0.70900   0.70900   0.00000   0.00000  Uiso   1.00
A21    Fe    0.29100   0.29100   0.00000   0.00000  Uiso   1.00
A22    Fe    0.95767   0.33333   0.33333   0.00000  Uiso   1.00
A23    Fe    0.37567   0.33333   0.33333   0.00000  Uiso   1.00
A24    Fe    0.66667   0.62433   0.33333   0.00000  Uiso   1.00
A25    Fe    0.66667   0.04233   0.33333   0.00000  Uiso   1.00
A26    Fe    0.37567   0.04233   0.33333   0.00000  Uiso   1.00
A27    Fe    0.95767   0.62433   0.33333   0.00000  Uiso   1.00
A28    Fe    0.62433   0.66667   0.66667   0.00000  Uiso   1.00
A29    Fe    0.04233   0.66667   0.66667   0.00000  Uiso   1.00
A30    Fe    0.33333   0.95767   0.66667   0.00000  Uiso   1.00
A31    Fe    0.33333   0.37567   0.66667   0.00000  Uiso   1.00
A32    Fe    0.04233   0.37567   0.66667   0.00000  Uiso   1.00
A33    Fe    0.62433   0.95767   0.66667   0.00000  Uiso   1.00
A34    Fe    0.50100   0.00200   0.15600   0.00000  Uiso   1.00
A35    Fe    0.49900   0.99800   0.84400   0.00000  Uiso   1.00
A36    Fe    0.99800   0.49900   0.15600   0.00000  Uiso   1.00
A37    Fe    0.00200   0.50100   0.84400   0.00000  Uiso   1.00
A38    Fe    0.50100   0.49900   0.15600   0.00000  Uiso   1.00
A39    Fe    0.49900   0.50100   0.84400   0.00000  Uiso   1.00
A40    Fe    0.16767   0.33533   0.48933   0.00000  Uiso   1.00
A41    Fe    0.16567   0.33133   0.17733   0.00000  Uiso   1.00
A42    Fe    0.66467   0.83233   0.48933   0.00000  Uiso   1.00
A43    Fe    0.66867   0.83433   0.17733   0.00000  Uiso   1.00
A44    Fe    0.16767   0.83233   0.48933   0.00000  Uiso   1.00
A45    Fe    0.16567   0.83433   0.17733   0.00000  Uiso   1.00
A46    Fe    0.83433   0.66867   0.82267   0.00000  Uiso   1.00
A47    Fe    0.83233   0.66467   0.51067   0.00000  Uiso   1.00
A48    Fe    0.33133   0.16567   0.82267   0.00000  Uiso   1.00
A49    Fe    0.33533   0.16767   0.51067   0.00000  Uiso   1.00
A50    Fe    0.83433   0.16567   0.82267   0.00000  Uiso   1.00
A51    Fe    0.83233   0.16767   0.51067   0.00000  Uiso   1.00
A52    Fe    0.00000   0.00000   0.09400   0.00000  Uiso   1.00
A53    Fe    0.00000   0.00000   0.90600   0.00000  Uiso   1.00
A54    Fe    0.66667   0.33333   0.42733   0.00000  Uiso   1.00
A55    Fe    0.66667   0.33333   0.23933   0.00000  Uiso   1.00
A56    Fe    0.33333   0.66667   0.76067   0.00000  Uiso   1.00
A57    Fe    0.33333   0.66667   0.57267   0.00000  Uiso   1.00
A58    N     0.50000   0.00000   0.00000   0.00000  Uiso   1.00
A59    N     1.00000   0.50000   0.00000   0.00000  Uiso   1.00
A60    N     0.50000   0.50000   0.00000   0.00000  Uiso   1.00
A61    N     0.16667   0.33333   0.33333   0.00000  Uiso   1.00
A62    N     0.66667   0.83333   0.33333   0.00000  Uiso   1.00
A63    N     0.16667   0.83333   0.33333   0.00000  Uiso   1.00
A64    N     0.83333   0.66667   0.66667   0.00000  Uiso   1.00
A65    N     0.33333   0.16667   0.66667   0.00000  Uiso   1.00
A66    N     0.83333   0.16667   0.66667   0.00000  Uiso   1.00
